@<TRIPOS>MOLECULE
*****
 29 29 0 0 0
SMALL
GASTEIGER

@<TRIPOS>ATOM
      1 C          -1.3183   -2.0551    0.5371 C.3     1  UNL1        0.0000
      2 C          -0.0237   -1.6733    0.9470 C.3     1  UNL1        0.0000
      3 C           1.0005   -2.6127    0.7278 C.3     1  UNL1        0.0000
      4 C           0.7788   -3.8598    0.1562 C.3     1  UNL1        0.0000
      5 C          -0.5127   -4.2153   -0.2270 C.3     1  UNL1        0.0000
      6 C          -1.5515   -3.3125   -0.0349 C.3     1  UNL1        0.0000
      7 H           2.0115   -2.3420    1.0245 H       1  UNL1        0.0000
      8 H           1.6040   -4.5518    0.0112 H       1  UNL1        0.0000
      9 H          -0.7138   -5.1851   -0.6727 H       1  UNL1        0.0000
     10 H          -2.5511   -3.6026   -0.3285 H       1  UNL1        0.0000
     11 H          -1.5586    0.1036    1.0479 H       2  UNK2        0.0000
     12 B           0.3733   -0.2915    1.7000 B       1  UNL1        0.0000
     13 N          -2.4161   -1.1015    0.7304 N.3     1  UNL1        0.0000
     14 C          -3.2676   -1.3837    1.9702 C.3     1  UNL1        0.0000
     15 C          -3.1690   -0.6889   -0.5281 C.3     1  UNL1        0.0000
     16 C          -1.2743    1.8912    2.2303 C.3     1  UNL1        0.0000
     17 C          -0.6952    3.0671    0.4300 C.3     1  UNL1        0.0000
     18 C          -0.6594    0.9864    1.3282 C.3     1  UNL1        0.0000
     19 H           0.3596    1.9404   -1.7536 H       1  UNL1        0.0000
     20 H           0.5241    0.3313   -1.0069 H       1  UNL1        0.0000
     21 H           1.6332    1.6258   -0.5397 H       1  UNL1        0.0000
     22 H          -0.4906    3.8367   -0.3034 H       1  UNL1        0.0000
     23 C          -1.3233    3.1656    1.6726 C.3     1  UNL1        0.0000
     24 N          -0.3104    1.8012    0.2230 N.3     1  UNL1        0.0000
     25 H          -1.6744    1.6015    3.1930 H       1  UNL1        0.0000
     26 H          -1.7540    4.0617    2.0967 H       1  UNL1        0.0000
     27 H           0.3340   -0.4476    2.9072 H       1  UNL1        0.0000
     28 H           1.5002    0.0546    1.3787 H       1  UNL1        0.0000
     29 C           0.6042    1.4030   -0.8345 C.3     1  UNL1        0.0000
@<TRIPOS>BOND
     1     1     6    1
     2     1    13    1
     3     1     2    1
     4    12     2    1
     5     3     2    1
     6     4     3    1
     7     7     3    1
     8     5     4    1
     9     8     4    1
    10     6     5    1
    11     9     5    1
    12    10     6    1
    13    26    23    1
    14    18    12    1
    15    27    12    1
    16    28    12    1
    17    14    13    1
    18    15    13    1
    19    22    17    1
    20    29    21    1
    21    18    16    1
    22    29    19    1
    23    29    20    1
    24    29    24    1
    25    24    17    1
    26    23    17    1
    27    24    18    1
    28    25    16    1
    29    23    16    1
