@<TRIPOS>MOLECULE
TS2 Guess
 29 28 0 0 0
SMALL
GASTEIGER

@<TRIPOS>ATOM
      1 H           1.3147    0.1121    2.6718 H       1  UNL1        0.0000
      2 C           2.1035    0.0855    1.9266 C.3     1  UNL1        0.0000
      3 C           2.7882    1.2481    1.5950 C.3     1  UNL1        0.0000
      4 C           2.4348   -1.1056    1.2932 C.3     1  UNL1        0.0000
      5 C           3.8189    1.2667    0.6429 C.3     1  UNL1        0.0000
      6 H           2.5117    2.1787    2.0835 H       1  UNL1        0.0000
      7 C           3.4425   -1.1133    0.3367 C.3     1  UNL1        0.0000
      8 H           1.9126   -2.0259    1.5358 H       1  UNL1        0.0000
      9 C           4.1398    0.0536    0.0016 C.3     1  UNL1        0.0000
     10 H           3.6929   -2.0431   -0.1591 H       1  UNL1        0.0000
     11 B           4.5056    2.6876    0.4420 B       1  UNL1        0.0000
     12 H           5.5297    1.8782   -0.9072 H       2  UNK2        0.0000
     13 H           5.6420    2.6511   -0.8202 H       3  UNK3        0.0000
     14 C           3.6386    3.8367   -0.1341 C.3     1  UNL1        0.0000
     15 C           2.3624    3.7926   -0.6843 C.3     1  UNL1        0.0000
     16 C           3.0466    5.9197   -0.7426 C.3     1  UNL1        0.0000
     17 H           1.0577    5.4111   -1.5174 H       1  UNL1        0.0000
     18 H           3.1718    6.9859   -0.8689 H       1  UNL1        0.0000
     19 H           5.3357    6.7557    0.1076 H       1  UNL1        0.0000
     20 C           6.4800   -0.5519   -0.5864 C.3     1  UNL1        0.0000
     21 C           4.7005   -0.0778   -2.4187 C.3     1  UNL1        0.0000
     22 N           5.1733    0.0418   -1.0037 N.3     1  UNL1        0.0000
     23 N           4.0325    5.1652   -0.1845 N.3     1  UNL1        0.0000
     24 C           5.3038    5.6785    0.2779 C.3     1  UNL1        0.0000
     25 H           5.4371    5.4847    1.3449 H       1  UNL1        0.0000
     26 H           5.4170    2.9661    1.1799 H       1  UNL1        0.0000
     27 H           6.1334    5.2149   -0.2638 H       1  UNL1        0.0000
     28 C           1.9869    5.0978   -1.0641 C.3     1  UNL1        0.0000
     29 H           1.7745    2.8902   -0.7820 H       1  UNL1        0.0000
@<TRIPOS>BOND
     1     1     2    1
     2     2     4    1
     3     2     3    1
     4     3     6    1
     5     3     5    1
     6     4     8    1
     7     4     7    1
     8     5     9    1
     9     5    11    1
    10     7    10    1
    11     7     9    1
    12     9    22    1
    13    11    14    1
    14    11    26    1
    15    14    15    1
    16    14    23    1
    17    15    29    1
    18    15    28    1
    19    16    23    1
    20    23    24    1
    21    24    27    1
    22    24    25    1
    23    28    17    1
    24    16    18    1
    25    22    21    1
    26    22    20    1
    27    24    19    1
    28    28    16    1
