@<TRIPOS>MOLECULE
ts3 TMP
 45 44 0 0 0
SMALL
GASTEIGER

@<TRIPOS>ATOM
      1 C          -2.1101   -1.9455    1.1811 C.3     1  UNL1        0.0000
      2 C          -0.7673   -1.5914    1.0987 C.3     1  UNL1        0.0000
      3 C          -0.3544   -0.3052    0.7203 C.3     1  UNL1        0.0000
      4 C          -1.3538    0.6449    0.4127 C.3     1  UNL1        0.0000
      5 C          -2.7027    0.2765    0.4968 C.3     1  UNL1        0.0000
      6 C          -3.0856   -1.0044    0.8793 C.3     1  UNL1        0.0000
      7 H          -2.3896   -2.9535    1.4756 H       1  UNL1        0.0000
      8 H          -0.0174   -2.3443    1.3302 H       1  UNL1        0.0000
      9 H          -3.4649    1.0108    0.2581 H       1  UNL1        0.0000
     10 H          -4.1398   -1.2615    0.9368 H       1  UNL1        0.0000
     11 B           1.2016    0.0804    0.6602 B       1  UNL1        0.0000
     12 H           1.6770   -1.0045   -0.0527 H       2  UNK2        0.0000
     13 C           1.9767    0.2489    2.0685 C.3     3  UNL3        0.0000
     14 C           1.6487   -0.2390    3.3157 C.3     3  UNL3        0.0000
     15 C           2.3499    0.3807    4.3830 C.3     3  UNL3        0.0000
     16 H           0.9145   -1.0260    3.4490 H       3  UNL3        0.0000
     17 C           3.2071    1.3518    3.9372 C.3     3  UNL3        0.0000
     18 H           2.2194    0.1285    5.4287 H       3  UNL3        0.0000
     19 H           3.8523    1.9839    4.5331 H       3  UNL3        0.0000
     20 H           1.5833    0.8896   -0.1373 H       1  UNL1        0.0000
     21 B           2.5323   -1.4283    0.7776 B       4  UNL4        0.0000
     22 O           3.8385   -1.2725    0.4116 O.3     4  UNL4        0.0000
     23 O           2.2616   -2.5991    1.4400 O.3     4  UNL4        0.0000
     24 C           4.5827   -2.2590    1.1674 C.3     4  UNL4        0.0000
     25 C           3.4943   -3.3590    1.4504 C.3     4  UNL4        0.0000
     26 C           5.7508   -2.7258    0.3115 C.3     4  UNL4        0.0000
     27 H           6.4455   -1.8965    0.1566 H       4  UNL4        0.0000
     28 H           6.2927   -3.5364    0.8094 H       4  UNL4        0.0000
     29 H           5.4171   -3.0748   -0.6669 H       4  UNL4        0.0000
     30 C           5.0972   -1.5779    2.4349 C.3     4  UNL4        0.0000
     31 H           5.6872   -0.7037    2.1496 H       4  UNL4        0.0000
     32 H           4.2782   -1.2366    3.0739 H       4  UNL4        0.0000
     33 H           5.7345   -2.2509    3.0157 H       4  UNL4        0.0000
     34 C           3.6218   -4.0450    2.8025 C.3     4  UNL4        0.0000
     35 H           2.8244   -4.7839    2.9169 H       4  UNL4        0.0000
     36 H           4.5815   -4.5651    2.8841 H       4  UNL4        0.0000
     37 H           3.5378   -3.3273    3.6203 H       4  UNL4        0.0000
     38 C           3.3738   -4.3938    0.3327 C.3     4  UNL4        0.0000
     39 H           4.2380   -5.0637    0.3088 H       4  UNL4        0.0000
     40 H           2.4758   -4.9928    0.5028 H       4  UNL4        0.0000
     41 H           3.2784   -3.9109   -0.6439 H       4  UNL4        0.0000
     42 N          -0.9765    1.9706    0.0157 N.3     1  UNL1        0.0000
     43 C          -1.0585    2.2784   -1.4353 C.3     1  UNL1        0.0000
     44 C          -1.1443    3.0497    1.0215 C.3     1  UNL1        0.0000
     45 S           3.1607    1.5073    2.2357 S.3     3  UNL3        0.0000
@<TRIPOS>BOND
     1     1     7    1
     2     1     6    1
     3     1     2    1
     4     2     3    1
     5     2     8    1
     6     3     4    1
     7     3    11    1
     8     4     5    1
     9     4    42    1
    10     5     6    1
    11     5     9    1
    12     6    10    1
    13    38    39    1
    14    42    44    1
    15    11    20    1
    16    42    43    1
    17    38    41    1
    18    13    14    1
    19    13    45    1
    20    14    16    1
    21    14    15    1
    22    15    17    1
    23    15    18    1
    24    17    45    1
    25    17    19    1
    26    21    23    1
    27    21    22    1
    28    22    24    1
    29    23    25    1
    30    24    25    1
    31    24    26    1
    32    24    30    1
    33    25    38    1
    34    25    34    1
    35    26    29    1
    36    26    28    1
    37    26    27    1
    38    30    31    1
    39    30    32    1
    40    30    33    1
    41    34    35    1
    42    34    36    1
    43    34    37    1
    44    38    40    1
