@<TRIPOS>MOLECULE
*****
 45 44 0 0 0
SMALL
GASTEIGER

@<TRIPOS>ATOM
      1 C          -2.4014   -1.4186    1.0403 C.2     1  UNL1       -1.0000
      2 C          -1.1318   -0.8393    1.2642 C.2     1  UNL1       -1.0000
      3 C          -0.0008   -1.5749    0.8616 C.cat   1  UNL1        1.0000
      4 C          -0.0932   -2.8563    0.3346 C.2     1  UNL1       -1.0000
      5 C          -1.3460   -3.4405    0.1735 C.cat   1  UNL1        1.0000
      6 C          -2.4807   -2.7167    0.5120 C.2     1  UNL1       -1.0000
      7 H           0.9825   -1.1243    0.9796 H       1  UNL1        0.0000
      8 H           0.8060   -3.3943    0.0464 H       1  UNL1        0.0000
      9 H          -1.4409   -4.4422   -0.2369 H       1  UNL1        0.0000
     10 H          -3.4644   -3.1461    0.3467 H       1  UNL1        0.0000
     11 N          -3.6114   -0.7055    1.3028 N.3     1  UNL1        0.0000
     12 B          -0.9300    0.5904    1.9298 B       1  UNL1        0.0000
     13 H           1.1103    4.1615    0.8189 H       2  UNL2        0.0000
     14 H           2.6440    3.7193    0.0414 H       2  UNL2        0.0000
     15 H           1.3274    2.5358    0.1591 H       2  UNL2        0.0000
     16 C           3.9257    1.3177    0.7251 C.3     2  UNL2        0.0000
     17 H           4.6904    2.0888    0.5845 H       2  UNL2        0.0000
     18 H           4.4281    0.3483    0.7823 H       2  UNL2        0.0000
     19 H           3.2724    1.3074   -0.1490 H       2  UNL2        0.0000
     20 C           4.0315    1.3514    3.2291 C.3     2  UNL2        0.0000
     21 H           4.3695    0.3120    3.2420 H       2  UNL2        0.0000
     22 H           4.9120    2.0004    3.2107 H       2  UNL2        0.0000
     23 H           3.4764    1.5382    4.1529 H       2  UNL2        0.0000
     24 C           0.0131    0.4462    3.6769 C.3     3  UNL3        0.0000
     25 C           0.1900   -0.8670    4.1034 C.2     3  UNL3       -1.0000
     26 C          -0.2745   -1.1242    5.4064 C.cat   3  UNL3        1.0000
     27 H          -1.8483    1.2631    2.2802 H       1  UNL1        0.0000
     28 H          -0.0879    1.2620    1.3448 H       4  UNK4        0.0000
     29 C           2.3511    2.9160    2.0499 C.3     2  UNL2        0.0000
     30 C           3.1397    1.5612    2.0046 C.3     2  UNL2        0.0000
     31 O           1.2115    2.5733    2.8632 O.3     2  UNL2        0.0000
     32 O           2.0833    0.5821    2.0885 O.3     2  UNL2        0.0000
     33 B           0.9995    1.2174    2.6835 B       2  UNL2        0.0000
     34 C           3.0901    4.0627    2.7244 C.3     2  UNL2        0.0000
     35 H           2.4631    4.9581    2.7167 H       2  UNL2        0.0000
     36 H           3.3277    3.8266    3.7630 H       2  UNL2        0.0000
     37 H           4.0187    4.2929    2.1919 H       2  UNL2        0.0000
     38 C           1.8335    3.3541    0.6787 C.3     2  UNL2        0.0000
     39 H           0.6358   -1.6167    3.4599 H       3  UNL3        0.0000
     40 C          -0.7920    0.0091    5.9892 C.2     3  UNL3       -1.0000
     41 H          -0.2384   -2.0907    5.8931 H       3  UNL3        0.0000
     42 H          -1.2221    0.0932    6.9795 H       3  UNL3        0.0000
     43 S          -0.7193    1.3638    4.9696 S.3     3  UNL3        0.0000
     44 C          -4.2199    0.0822    0.2011 C.3     1  UNL1        0.0000
     45 C          -4.3673   -1.0192    2.5298 C.3     1  UNL1        0.0000
@<TRIPOS>UNITY_ATOM_ATTR
1 1
charge -1
2 1
charge -1
3 1
charge 1
4 1
charge -1
5 1
charge 1
6 1
charge -1
12 1
charge 1
25 1
charge -1
26 1
charge 1
40 1
charge -1
@<TRIPOS>BOND
     1     1     6    1
     2     1    11    1
     3     1     2    1
     4     2     3    1
     5     2    12    1
     6     3     4    1
     7     3     7    1
     8     4     5    1
     9     4     8    1
    10     5     6    1
    11     5     9    1
    12     6    10    1
    13    11    44    1
    14    11    45    1
    15    40    42    1
    16    12    27    1
    17    34    36    1
    18    13    38    1
    19    14    38    1
    20    15    38    1
    21    16    18    1
    22    16    19    1
    23    16    17    1
    24    16    30    1
    25    20    21    1
    26    20    30    1
    27    20    22    1
    28    20    23    1
    29    24    25    1
    30    24    43    1
    31    40    43    1
    32    25    26    1
    33    25    39    1
    34    26    41    1
    35    26    40    1
    36    29    31    1
    37    29    38    1
    38    29    30    1
    39    29    34    1
    40    30    32    1
    41    31    33    1
    42    32    33    1
    43    34    35    1
    44    34    37    1
